## Here is the first docking I had ran, for the moment I did not ran the extrame and dielectric to optimize the spheres and binding energy. 


##########                 Name:     ZINC000065461033
##########          Protonation:                 none
##########               SMILES:   C[N@@H+]1C[C@H]2C[NH2+]C[C@@]2(C(=O)NCCCN2N=NC3=CC=CC=C32)C1
##########            Long Name:   NO_LONG_NAME
##########          FlexRecCode: 1
##########               Number:                 1294
##########   Ligand Source File: /mnt/screening/DOCK-3.7.5/small_scale/EC/AARP/ECAARP.xaa.db2.gz
##########                 Rank:                    1
##########               Setnum:                   78
##########             Matchnum:                 3249
##########                Cloud:                    1
##########        Electrostatic:          -316.804291
##########                 Gist:             0.000000
##########        Van der Waals:           -10.353012
##########  Ligand Polar Desolv:            52.810669
########## Ligand Apolar Desolv:            -2.467572
##########      Internal Energy:             0.000000
##########      Receptor Energy:             0.000000
########## Receptor Desolvation:             0.000000
########## Receptor Hydrophobic:             0.000000
##########         Total Energy:          -276.814178
##########        Ligand Charge:             2.000000
##########            Arbitrary:    +999.9990
##########        Ligand Energy:             0.000000

@<TRIPOS>MOLECULE
 ZINC000065461033      none
   50    53     2     0     0



@<TRIPOS>ATOM
      1 C1         48.9373    -5.5342    -9.6976 C.3        1  LIG1  -0.0500
      2 N1         47.7637    -5.7144   -10.5627 N.4        1  LIG1  -0.4000
      3 H1         47.9680    -6.3694   -11.3025 H          1  LIG1   0.4100
      4 C2         47.3298    -4.4113   -11.1278 C.3        1  LIG1  -0.0100
      5 C3         45.8532    -4.6264   -11.5197 C.3        1  LIG1  -0.1100
      6 H2         45.2545    -3.7244   -11.3934 H          1  LIG1   0.1900
      7 C4         45.7954    -5.1725   -12.9616 C.3        1  LIG1  -0.0100
      8 N2         45.8972    -6.6465   -12.8112 N.4        1  LIG1  -0.5200
      9 H3         45.5248    -7.1110   -13.6259 H          1  LIG1   0.4600
     10 H4         46.8561    -6.9201   -12.6565 H          1  LIG1   0.4200
     11 C5         45.0687    -6.9491   -11.6165 C.3        1  LIG1  -0.0100
     12 C6         45.3677    -5.7932   -10.6179 C.3        1  LIG1  -0.1200
     13 C7         44.1678    -5.4342    -9.7797 C.2        1  LIG1   0.5300
     14 O1         44.2354    -5.4870    -8.5699 O.2        1  LIG1  -0.4800
     15 N3         43.0195    -5.0546   -10.3746 N.am       1  LIG1  -0.7100
     16 C8         41.8531    -4.7057    -9.5598 C.3        1  LIG1   0.1200
     17 C9         41.8829    -3.2096    -9.2405 C.3        1  LIG1  -0.1500
     18 C10        40.6647    -2.8453    -8.3896 C.3        1  LIG1   0.1400
     19 N4         40.6933    -1.4128    -8.0839 N.pl3      1  LIG1  -0.4100
     20 N5         40.1153    -0.3816    -8.8392 N.2        1  LIG1  -0.0100
     21 N6         40.3411     0.7473    -8.2655 N.2        1  LIG1  -0.2100
     22 C11        41.0538     0.5644    -7.1359 C.ar       1  LIG1  -0.0200
     23 C12        41.5513     1.4436    -6.1653 C.ar       1  LIG1  -0.0300
     24 C13        42.2567     0.9573    -5.1037 C.ar       1  LIG1  -0.1300
     25 C14        42.4904    -0.4052    -4.9703 C.ar       1  LIG1  -0.0600
     26 C15        42.0128    -1.2902    -5.9107 C.ar       1  LIG1  -0.1300
     27 C16        41.2865    -0.8152    -6.9974 C.ar       1  LIG1   0.0900
     28 C17        46.5979    -6.1761    -9.7670 C.3        1  LIG1  -0.0100
     29 H5         48.6992    -4.8246    -8.9054 H          1  LIG1   0.1400
     30 H6         49.2141    -6.4918    -9.2567 H          1  LIG1   0.1400
     31 H7         49.7695    -5.1524   -10.2891 H          1  LIG1   0.1300
     32 H8         47.4128    -3.6253   -10.3771 H          1  LIG1   0.1600
     33 H9         47.9237    -4.1620   -12.0071 H          1  LIG1   0.1600
     34 H10        44.8498    -4.9032   -13.4320 H          1  LIG1   0.1700
     35 H11        46.6332    -4.7916   -13.5458 H          1  LIG1   0.1600
     36 H12        44.0108    -6.9538   -11.8793 H          1  LIG1   0.1700
     37 H13        45.3583    -7.9079   -11.1865 H          1  LIG1   0.1600
     38 H14        42.9654    -5.0123   -11.3421 H          1  LIG1   0.4000
     39 H15        40.9420    -4.9416   -10.1098 H          1  LIG1   0.0900
     40 H16        41.8748    -5.2759    -8.6311 H          1  LIG1   0.0900
     41 H17        42.7939    -2.9737    -8.6905 H          1  LIG1   0.0900
     42 H18        41.8612    -2.6395   -10.1692 H          1  LIG1   0.0800
     43 H19        39.7537    -3.0813    -8.9397 H          1  LIG1   0.1000
     44 H20        40.6865    -3.4156    -7.4611 H          1  LIG1   0.1100
     45 H21        41.3766     2.5053    -6.2576 H          1  LIG1   0.1400
     46 H22        42.6380     1.6398    -4.3586 H          1  LIG1   0.1400
     47 H23        43.0509    -0.7729    -4.1235 H          1  LIG1   0.1400
     48 H24        42.1976    -2.3487    -5.8027 H          1  LIG1   0.1300
     49 H25        46.6444    -7.2567    -9.6315 H          1  LIG1   0.1600
     50 H26        46.5630    -5.6727    -8.8009 H          1  LIG1   0.1600
@<TRIPOS>BOND
     1    1    2 1
     2    1   29 1
     3    1   30 1
     4    1   31 1
     5    2    3 1
     6    2   28 1
     7    2    4 1
     8    4    5 1
     9    4   32 1
    10    4   33 1
    11    5    6 1
    12    5   12 1
    13    5    7 1
    14    7    8 1
    15    7   34 1
    16    7   35 1
    17    8    9 1
    18    8   10 1
    19    8   11 1
    20   11   12 1
    21   11   36 1
    22   11   37 1
    23   12   13 1
    24   12   28 1
    25   13   14 2
    26   13   15 am
    27   15   16 1
    28   15   38 1
    29   16   17 1
    30   16   39 1
    31   16   40 1
    32   17   18 1
    33   17   41 1
    34   17   42 1
    35   18   19 1
    36   18   43 1
    37   18   44 1
    38   19   27 1
    39   19   20 1
    40   20   21 2
    41   21   22 1
    42   22   27 ar
    43   22   23 ar
    44   23   24 ar
    45   23   45 1
    46   24   25 ar
    47   24   46 1
    48   25   26 ar
    49   25   47 1
    50   26   27 ar
    51   26   48 1
    52   28   49 1
    53   28   50 1
##########                 Name:     ZINC000299758431
##########          Protonation:                 none
##########               SMILES:   C1=C2C[N@H+](C[C@H]3[C@@H]4C[NH2+]C[C@H]34)CCN2N=C1CNC1=NC=CC=N1
##########            Long Name:   NO_LONG_NAME
##########          FlexRecCode: 1
##########               Number:                  436
##########   Ligand Source File: /mnt/screening/DOCK-3.7.5/small_scale/EC/AAMP/ECAAMP.xaa.db2.gz
##########                 Rank:                    1
##########               Setnum:                   68
##########             Matchnum:                 1552
##########                Cloud:                    1
##########        Electrostatic:          -317.578217
##########                 Gist:             0.000000
##########        Van der Waals:           -16.451286
##########  Ligand Polar Desolv:            49.213264
########## Ligand Apolar Desolv:            -2.744759
##########      Internal Energy:             0.000000
##########      Receptor Energy:             0.000000
########## Receptor Desolvation:             0.000000
########## Receptor Hydrophobic:             0.000000
##########         Total Energy:          -287.561005
##########        Ligand Charge:             2.000000
##########            Arbitrary:    +999.9990
##########        Ligand Energy:             0.000000

@<TRIPOS>MOLECULE
 ZINC000299758431      none
   49    53     2     0     0



@<TRIPOS>ATOM
      1 C1         43.5363    -5.2141   -11.7681 C.2        1  LIG1  -0.1800
      2 C2         44.1637    -5.4336   -10.5986 C.2        1  LIG1   0.0000
      3 C3         45.4589    -6.1640   -10.3475 C.3        1  LIG1   0.0800
      4 N1         45.9371    -5.8034    -9.0017 N.4        1  LIG1  -0.3900
      5 H1         46.2256    -4.8365    -8.9966 H          1  LIG1   0.4300
      6 C4         47.0793    -6.6555    -8.6452 C.3        1  LIG1   0.0200
      7 C5         48.2057    -6.4493    -9.6599 C.3        1  LIG1  -0.1500
      8 H2         48.0933    -6.9863   -10.6017 H          1  LIG1   0.1400
      9 C6         48.8671    -5.0706    -9.7088 C.3        1  LIG1  -0.1700
     10 H3         48.4817    -4.2673    -9.0808 H          1  LIG1   0.1600
     11 C7         49.6272    -4.6731   -10.9924 C.3        1  LIG1   0.0200
     12 N2         51.0023    -5.1978   -10.7907 N.4        1  LIG1  -0.5200
     13 H4         51.4700    -5.3124   -11.6775 H          1  LIG1   0.4500
     14 H5         51.5304    -4.5823   -10.1903 H          1  LIG1   0.4400
     15 C8         50.7979    -6.5161   -10.1370 C.3        1  LIG1   0.0100
     16 C9         49.6239    -6.2740    -9.1132 C.3        1  LIG1  -0.1400
     17 H6         49.8502    -6.3761    -8.0519 H          1  LIG1   0.1700
     18 C10        44.8613    -5.9967    -8.0203 C.3        1  LIG1  -0.0200
     19 C11        43.7936    -4.9093    -8.1984 C.3        1  LIG1   0.1100
     20 N3         43.4215    -4.8663    -9.6163 N.pl3      1  LIG1  -0.3800
     21 N4         42.3054    -4.2763   -10.2054 N.2        1  LIG1  -0.2200
     22 C12        42.3705    -4.4844   -11.4985 C.2        1  LIG1   0.0700
     23 C13        41.3651    -4.0182   -12.5196 C.3        1  LIG1   0.2200
     24 N5         40.2877    -3.2888   -11.8463 N.pl3      1  LIG1  -0.7000
     25 C14        39.6189    -2.2746   -12.5094 C.ar       1  LIG1   0.5600
     26 N6         38.6508    -1.6214   -11.8839 N.ar       1  LIG1  -0.5700
     27 C15        37.9922    -0.6466   -12.4889 C.ar       1  LIG1   0.1900
     28 C16        38.3261    -0.3123   -13.7920 C.ar       1  LIG1  -0.2800
     29 C17        39.3438    -1.0160   -14.4166 C.ar       1  LIG1   0.1900
     30 N7         39.9658    -1.9764   -13.7529 N.ar       1  LIG1  -0.5700
     31 H7         43.8734    -5.5380   -12.7417 H          1  LIG1   0.1700
     32 H8         45.2912    -7.2396   -10.4020 H          1  LIG1   0.1500
     33 H9         46.1981    -5.8684   -11.0919 H          1  LIG1   0.1500
     34 H10        47.4342    -6.3895    -7.6494 H          1  LIG1   0.1500
     35 H11        46.7696    -7.7005    -8.6535 H          1  LIG1   0.1500
     36 H12        49.1676    -5.1367   -11.8653 H          1  LIG1   0.1400
     37 H13        49.6463    -3.5889   -11.1025 H          1  LIG1   0.1500
     38 H14        50.5215    -7.2680   -10.8761 H          1  LIG1   0.1400
     39 H15        51.6984    -6.8194    -9.6031 H          1  LIG1   0.1500
     40 H16        44.4082    -6.9771    -8.1675 H          1  LIG1   0.1500
     41 H17        45.2745    -5.9372    -7.0134 H          1  LIG1   0.1600
     42 H18        42.9183    -5.1504    -7.5952 H          1  LIG1   0.1400
     43 H19        44.1970    -3.9437    -7.8940 H          1  LIG1   0.1200
     44 H20        41.8549    -3.3611   -13.2382 H          1  LIG1   0.0900
     45 H21        40.9496    -4.8807   -13.0406 H          1  LIG1   0.1000
     46 H22        40.0431    -3.5165   -10.9357 H          1  LIG1   0.4100
     47 H23        37.2037    -0.1179   -11.9739 H          1  LIG1   0.1700
     48 H24        37.8042     0.4791   -14.3094 H          1  LIG1   0.1500
     49 H25        39.6281    -0.7805   -15.4316 H          1  LIG1   0.1700
@<TRIPOS>BOND
     1    1   22 1
     2    1    2 2
     3    1   31 1
     4    2   20 1
     5    2    3 1
     6    3    4 1
     7    3   32 1
     8    3   33 1
     9    4    5 1
    10    4    6 1
    11    4   18 1
    12    6    7 1
    13    6   34 1
    14    6   35 1
    15    7    8 1
    16    7   16 1
    17    7    9 1
    18    9   10 1
    19    9   16 1
    20    9   11 1
    21   11   12 1
    22   11   36 1
    23   11   37 1
    24   12   13 1
    25   12   14 1
    26   12   15 1
    27   15   16 1
    28   15   38 1
    29   15   39 1
    30   16   17 1
    31   18   19 1
    32   18   40 1
    33   18   41 1
    34   19   20 1
    35   19   42 1
    36   19   43 1
    37   20   21 1
    38   21   22 2
    39   22   23 1
    40   23   24 1
    41   23   44 1
    42   23   45 1
    43   24   25 1
    44   24   46 1
    45   25   30 ar
    46   25   26 ar
    47   26   27 ar
    48   27   28 ar
    49   27   47 1
    50   28   29 ar
    51   28   48 1
    52   29   30 ar
    53   29   49 1
##########                 Name:     ZINC000096153076
##########          Protonation:                 none
##########               SMILES:   O=C(NCC[NH+]1CCC(C2=CC=CC=C2)CC1)C12C[NH2+]CC1C[NH2+]C2
##########            Long Name:   NO_LONG_NAME
##########          FlexRecCode: 1
##########               Number:                 1082
##########   Ligand Source File: /mnt/screening/DOCK-3.7.5/small_scale/EC/AARP/ECAARP.xaa.db2.gz
##########                 Rank:                    1
##########               Setnum:                   13
##########             Matchnum:                  915
##########                Cloud:                    1
##########        Electrostatic:          -409.572144
##########                 Gist:             0.000000
##########        Van der Waals:            48.080017
##########  Ligand Polar Desolv:            79.490921
########## Ligand Apolar Desolv:            -0.939184
##########      Internal Energy:             0.000000
##########      Receptor Energy:             0.000000
########## Receptor Desolvation:             0.000000
########## Receptor Hydrophobic:             0.000000
##########         Total Energy:          -282.940399
##########        Ligand Charge:             3.000000
##########            Arbitrary:    +999.9990
##########        Ligand Energy:             0.000000

@<TRIPOS>MOLECULE
 ZINC000096153076      none
   58    61     3     0     0



@<TRIPOS>ATOM
      1 O1         44.9972    -7.1285   -10.4110 O.2        1  LIG1  -0.4800
      2 C1         45.8343    -6.4482   -10.9654 C.2        1  LIG1   0.5200
      3 N1         45.6891    -6.1289   -12.2667 N.am       1  LIG1  -0.7200
      4 C2         44.5204    -6.6036   -13.0116 C.3        1  LIG1   0.0900
      5 C3         43.3916    -5.5771   -12.8980 C.3        1  LIG1  -0.0200
      6 N2         42.2196    -6.0532   -13.6449 N.4        1  LIG1  -0.3800
      7 H1         42.1112    -7.0461   -13.5014 H          1  LIG1   0.4300
      8 C4         42.4110    -5.7853   -15.0754 C.3        1  LIG1   0.0000
      9 C5         41.2301    -6.3516   -15.8666 C.3        1  LIG1  -0.1400
     10 C6         39.9363    -5.6855   -15.3894 C.3        1  LIG1  -0.0500
     11 C7         38.7607    -6.2943   -16.1092 C.ar       1  LIG1  -0.1100
     12 C8         37.6335    -5.5339   -16.3581 C.ar       1  LIG1  -0.1200
     13 C9         36.5551    -6.0922   -17.0186 C.ar       1  LIG1  -0.1100
     14 C10        36.6040    -7.4109   -17.4304 C.ar       1  LIG1  -0.1000
     15 C11        37.7317    -8.1710   -17.1823 C.ar       1  LIG1  -0.1100
     16 C12        38.8118    -7.6114   -16.5257 C.ar       1  LIG1  -0.1100
     17 C13        39.7850    -5.9083   -13.8818 C.3        1  LIG1  -0.1400
     18 C14        41.0198    -5.3569   -13.1653 C.3        1  LIG1  -0.0100
     19 C15        47.0334    -5.9545   -10.1976 C.3        1  LIG1  -0.1300
     20 C16        47.1462    -4.4158   -10.2103 C.3        1  LIG1   0.0100
     21 N3         48.1359    -4.1188   -11.2771 N.4        1  LIG1  -0.5200
     22 H2         47.7037    -4.1807   -12.1867 H          1  LIG1   0.4400
     23 H3         48.5395    -3.2044   -11.1394 H          1  LIG1   0.4600
     24 C17        49.1688    -5.1744   -11.1199 C.3        1  LIG1   0.0000
     25 C18        48.3730    -6.4569   -10.8002 C.3        1  LIG1  -0.1200
     26 C19        49.0725    -7.2014    -9.6439 C.3        1  LIG1   0.0000
     27 N4         47.9701    -7.6085    -8.7358 N.4        1  LIG1  -0.5200
     28 H4         47.5019    -8.4272    -9.0941 H          1  LIG1   0.4400
     29 H5         48.3240    -7.7823    -7.8070 H          1  LIG1   0.4600
     30 C20        47.0434    -6.4552    -8.7383 C.3        1  LIG1   0.0100
     31 H6         46.3586    -5.5849   -12.7103 H          1  LIG1   0.4100
     32 H7         44.7870    -6.7361   -14.0601 H          1  LIG1   0.1000
     33 H8         44.1883    -7.5560   -12.5981 H          1  LIG1   0.1000
     34 H9         43.1250    -5.4446   -11.8495 H          1  LIG1   0.1400
     35 H10        43.7238    -4.6247   -13.3116 H          1  LIG1   0.1400
     36 H11        42.4740    -4.7092   -15.2377 H          1  LIG1   0.1300
     37 H12        43.3338    -6.2573   -15.4127 H          1  LIG1   0.1300
     38 H13        41.3731    -6.1500   -16.9282 H          1  LIG1   0.1200
     39 H14        41.1664    -7.4277   -15.7051 H          1  LIG1   0.0900
     40 H15        39.9781    -4.6165   -15.5987 H          1  LIG1   0.1000
     41 H16        37.5953    -4.5036   -16.0364 H          1  LIG1   0.1100
     42 H17        35.6740    -5.4984   -17.2124 H          1  LIG1   0.1300
     43 H18        35.7612    -7.8474   -17.9457 H          1  LIG1   0.1300
     44 H19        37.7698    -9.2015   -17.5038 H          1  LIG1   0.1300
     45 H20        39.6928    -8.2053   -16.3318 H          1  LIG1   0.1200
     46 H21        38.8953    -5.3897   -13.5248 H          1  LIG1   0.1200
     47 H22        39.6914    -6.9751   -13.6792 H          1  LIG1   0.0900
     48 H23        40.9162    -5.5132   -12.0916 H          1  LIG1   0.1300
     49 H24        41.1114    -4.2901   -13.3690 H          1  LIG1   0.1300
     50 H25        46.1827    -3.9663   -10.4505 H          1  LIG1   0.1500
     51 H26        47.5057    -4.0535    -9.2472 H          1  LIG1   0.1700
     52 H27        49.7304    -5.2969   -12.0461 H          1  LIG1   0.1700
     53 H28        49.8403    -4.9292   -10.2972 H          1  LIG1   0.1600
     54 H29        48.2259    -7.0842   -11.6795 H          1  LIG1   0.1700
     55 H30        49.5982    -8.0790   -10.0202 H          1  LIG1   0.1700
     56 H31        49.7640    -6.5359    -9.1272 H          1  LIG1   0.1600
     57 H32        47.4160    -5.6672    -8.0838 H          1  LIG1   0.1600
     58 H33        46.0466    -6.7682    -8.4277 H          1  LIG1   0.1500
@<TRIPOS>BOND
     1    1    2 2
     2    2    3 am
     3    2   19 1
     4    3    4 1
     5    3   31 1
     6    4    5 1
     7    4   32 1
     8    4   33 1
     9    5    6 1
    10    5   34 1
    11    5   35 1
    12    6    7 1
    13    6   18 1
    14    6    8 1
    15    8    9 1
    16    8   36 1
    17    8   37 1
    18    9   10 1
    19    9   38 1
    20    9   39 1
    21   10   11 1
    22   10   17 1
    23   10   40 1
    24   11   16 ar
    25   11   12 ar
    26   12   13 ar
    27   12   41 1
    28   13   14 ar
    29   13   42 1
    30   14   15 ar
    31   14   43 1
    32   15   16 ar
    33   15   44 1
    34   16   45 1
    35   17   18 1
    36   17   46 1
    37   17   47 1
    38   18   48 1
    39   18   49 1
    40   19   25 1
    41   19   30 1
    42   19   20 1
    43   20   21 1
    44   20   50 1
    45   20   51 1
    46   21   22 1
    47   21   23 1
    48   21   24 1
    49   24   25 1
    50   24   52 1
    51   24   53 1
    52   25   26 1
    53   25   54 1
    54   26   27 1
    55   26   55 1
    56   26   56 1
    57   27   28 1
    58   27   29 1
    59   27   30 1
    60   30   57 1
    61   30   58 1
##########                 Name:     ZINC000065387682
##########          Protonation:                 none
##########               SMILES:   COC1=CC=C(C)C=C1NC(=O)CNC(=O)[C@@]12C[NH2+]C[C@@H]1C[N@H+](C)C2
##########            Long Name:   NO_LONG_NAME
##########          FlexRecCode: 1
##########               Number:                 1242
##########   Ligand Source File: /mnt/screening/DOCK-3.7.5/small_scale/EC/AARP/ECAARP.xaa.db2.gz
##########                 Rank:                    1
##########               Setnum:                  140
##########             Matchnum:                 6265
##########                Cloud:                    1
##########        Electrostatic:          -310.559082
##########                 Gist:             0.000000
##########        Van der Waals:           -15.820392
##########  Ligand Polar Desolv:            44.314507
########## Ligand Apolar Desolv:            -0.870598
##########      Internal Energy:             0.000000
##########      Receptor Energy:             0.000000
########## Receptor Desolvation:             0.000000
########## Receptor Hydrophobic:             0.000000
##########         Total Energy:          -282.935577
##########        Ligand Charge:             2.000000
##########            Arbitrary:    +999.9990
##########        Ligand Energy:             0.000000

@<TRIPOS>MOLECULE
 ZINC000065387682      none
   53    55     2     0     0



@<TRIPOS>ATOM
      1 C1         40.8039    -7.2736   -17.4056 C.3        1  LIG1   0.0300
      2 O1         40.0878    -7.2237   -16.1700 O.3        1  LIG1  -0.3200
      3 C2         40.0558    -6.0282   -15.5230 C.ar       1  LIG1   0.1000
      4 C3         39.0360    -5.1268   -15.7796 C.ar       1  LIG1  -0.1800
      5 C4         39.0052    -3.9112   -15.1212 C.ar       1  LIG1  -0.0800
      6 C5         39.9901    -3.5919   -14.2053 C.ar       1  LIG1  -0.1000
      7 C6         39.9507    -2.2655   -13.4910 C.3        1  LIG1  -0.1100
      8 C7         41.0108    -4.4863   -13.9426 C.ar       1  LIG1  -0.0900
      9 C8         41.0457    -5.7093   -14.5956 C.ar       1  LIG1   0.1000
     10 N1         42.0791    -6.6179   -14.3307 N.am       1  LIG1  -0.6400
     11 C9         43.2943    -6.1673   -13.9610 C.2        1  LIG1   0.5100
     12 O2         43.4934    -4.9752   -13.8575 O.2        1  LIG1  -0.5300
     13 C10        44.4057    -7.1443   -13.6761 C.3        1  LIG1   0.0900
     14 N2         45.3096    -6.5767   -12.6726 N.am       1  LIG1  -0.7000
     15 C11        44.8415    -6.2509   -11.4515 C.2        1  LIG1   0.5100
     16 O3         43.6720    -6.4276   -11.1833 O.2        1  LIG1  -0.4900
     17 C12        45.7714    -5.6671   -10.4193 C.3        1  LIG1  -0.1300
     18 C13        45.0644    -5.4042    -9.0734 C.3        1  LIG1   0.0100
     19 N3         45.4142    -6.5744    -8.2285 N.4        1  LIG1  -0.5200
     20 H1         45.3089    -6.3481    -7.2509 H          1  LIG1   0.4500
     21 H2         44.8409    -7.3686    -8.4707 H          1  LIG1   0.4500
     22 C14        46.8394    -6.8423    -8.5491 C.3        1  LIG1   0.0000
     23 C15        46.9472    -6.6197   -10.0720 C.3        1  LIG1  -0.1200
     24 H3         46.9066    -7.5541   -10.6319 H          1  LIG1   0.1700
     25 C16        48.2285    -5.8128   -10.3676 C.3        1  LIG1   0.0000
     26 N4         47.8091    -4.7877   -11.3570 N.4        1  LIG1  -0.4000
     27 H4         47.7475    -5.1919   -12.2795 H          1  LIG1   0.4400
     28 C17        48.7459    -3.6562   -11.3533 C.3        1  LIG1  -0.0500
     29 C18        46.4457    -4.3669   -10.9043 C.3        1  LIG1   0.0100
     30 H5         40.7507    -8.2821   -17.8158 H          1  LIG1   0.1100
     31 H6         40.3609    -6.5706   -18.1110 H          1  LIG1   0.0600
     32 H7         41.8463    -7.0063   -17.2325 H          1  LIG1   0.0600
     33 H8         38.2649    -5.3733   -16.4947 H          1  LIG1   0.1400
     34 H9         38.2096    -3.2094   -15.3232 H          1  LIG1   0.1300
     35 H10        40.8014    -2.1922   -12.8135 H          1  LIG1   0.0700
     36 H11        39.9975    -1.4578   -14.2216 H          1  LIG1   0.0600
     37 H12        39.0247    -2.1868   -12.9213 H          1  LIG1   0.0700
     38 H13        41.7791    -4.2342   -13.2266 H          1  LIG1   0.1500
     39 H14        41.9198    -7.5711   -14.4135 H          1  LIG1   0.4200
     40 H15        43.9829    -8.0756   -13.2990 H          1  LIG1   0.1200
     41 H16        44.9597    -7.3422   -14.5938 H          1  LIG1   0.1200
     42 H17        46.2449    -6.4354   -12.8871 H          1  LIG1   0.4200
     43 H18        45.4371    -4.4848    -8.6218 H          1  LIG1   0.1600
     44 H19        43.9852    -5.3479    -9.2160 H          1  LIG1   0.1600
     45 H20        47.4860    -6.1447    -8.0166 H          1  LIG1   0.1500
     46 H21        47.0988    -7.8703    -8.2963 H          1  LIG1   0.1600
     47 H22        48.5950    -5.3357    -9.4587 H          1  LIG1   0.1500
     48 H23        48.9952    -6.4601   -10.7933 H          1  LIG1   0.1600
     49 H24        48.4231    -2.9148   -12.0840 H          1  LIG1   0.1400
     50 H25        48.7658    -3.2042   -10.3616 H          1  LIG1   0.1300
     51 H26        49.7440    -4.0101   -11.6114 H          1  LIG1   0.1300
     52 H27        45.8929    -3.9185   -11.7300 H          1  LIG1   0.1600
     53 H28        46.5210    -3.6669   -10.0722 H          1  LIG1   0.1600
@<TRIPOS>BOND
     1    1    2 1
     2    1   30 1
     3    1   31 1
     4    1   32 1
     5    2    3 1
     6    3    9 ar
     7    3    4 ar
     8    4    5 ar
     9    4   33 1
    10    5    6 ar
    11    5   34 1
    12    6    7 1
    13    6    8 ar
    14    7   35 1
    15    7   36 1
    16    7   37 1
    17    8    9 ar
    18    8   38 1
    19    9   10 1
    20   10   11 am
    21   10   39 1
    22   11   12 2
    23   11   13 1
    24   13   14 1
    25   13   40 1
    26   13   41 1
    27   14   15 am
    28   14   42 1
    29   15   16 2
    30   15   17 1
    31   17   23 1
    32   17   29 1
    33   17   18 1
    34   18   19 1
    35   18   43 1
    36   18   44 1
    37   19   20 1
    38   19   21 1
    39   19   22 1
    40   22   23 1
    41   22   45 1
    42   22   46 1
    43   23   24 1
    44   23   25 1
    45   25   26 1
    46   25   47 1
    47   25   48 1
    48   26   27 1
    49   26   28 1
    50   26   29 1
    51   28   49 1
    52   28   50 1
    53   28   51 1
    54   29   52 1
    55   29   53 1
##########                 Name:     ZINC000220198688
##########          Protonation:                 none
##########               SMILES:   NC(=O)C1=CC=C(C2=NC3=C(C[N@H+](C[C@H]4[C@@H]5C[NH2+]C[C@H]45)CC3)N2)C=C1
##########            Long Name:   NO_LONG_NAME
##########          FlexRecCode: 1
##########               Number:                 1340
##########   Ligand Source File: /mnt/screening/DOCK-3.7.5/small_scale/EC/AARP/ECAARP.xaa.db2.gz
##########                 Rank:                    1
##########               Setnum:                   11
##########             Matchnum:                 1553
##########                Cloud:                    1
##########        Electrostatic:          -319.017883
##########                 Gist:             0.000000
##########        Van der Waals:           -18.126366
##########  Ligand Polar Desolv:            48.314556
########## Ligand Apolar Desolv:            -3.212353
##########      Internal Energy:             0.000000
##########      Receptor Energy:             0.000000
########## Receptor Desolvation:             0.000000
########## Receptor Hydrophobic:             0.000000
##########         Total Energy:          -292.042053
##########        Ligand Charge:             2.000000
##########            Arbitrary:    +999.9990
##########        Ligand Energy:             0.000000

@<TRIPOS>MOLECULE
 ZINC000220198688      none
   50    54     2     0     0



@<TRIPOS>ATOM
      1 N1         37.3500    -2.9073   -15.3154 N.am       1  LIG1  -0.8400
      2 C1         38.6495    -3.0494   -15.6436 C.2        1  LIG1   0.5600
      3 O1         39.0164    -2.8297   -16.7816 O.2        1  LIG1  -0.5300
      4 C2         39.6276    -3.4718   -14.6207 C.ar       1  LIG1  -0.1100
      5 C3         40.9760    -3.6134   -14.9593 C.ar       1  LIG1  -0.0800
      6 C4         41.8871    -4.0066   -14.0061 C.ar       1  LIG1  -0.0700
      7 C5         41.4644    -4.2640   -12.6997 C.ar       1  LIG1  -0.0200
      8 C6         42.4432    -4.6858   -11.6758 C.2        1  LIG1   0.3100
      9 N2         42.3593    -4.4436   -10.3828 N.2        1  LIG1  -0.4500
     10 C7         43.4130    -4.9726    -9.7722 C.2        1  LIG1   0.0300
     11 C8         44.1956    -5.5687   -10.7068 C.2        1  LIG1  -0.1000
     12 C9         45.4876    -6.2732   -10.3860 C.3        1  LIG1   0.0900
     13 N3         45.9288    -5.8487    -9.0468 N.4        1  LIG1  -0.3800
     14 H1         46.1937    -4.8755    -9.0749 H          1  LIG1   0.4300
     15 C10        47.0854    -6.6562    -8.6367 C.3        1  LIG1   0.0200
     16 C11        48.2258    -6.4589    -9.6374 C.3        1  LIG1  -0.1500
     17 H2         48.1457    -7.0339   -10.5600 H          1  LIG1   0.1400
     18 C12        48.8524    -5.0659    -9.7268 C.3        1  LIG1  -0.1700
     19 H3         48.4343    -4.2500    -9.1374 H          1  LIG1   0.1600
     20 C13        49.6271    -4.6973   -11.0103 C.3        1  LIG1   0.0200
     21 N4         51.0111    -5.1775   -10.7632 N.4        1  LIG1  -0.5200
     22 H4         51.4987    -5.3131   -11.6361 H          1  LIG1   0.4400
     23 H5         51.5112    -4.5261   -10.1771 H          1  LIG1   0.4400
     24 C14        50.8277    -6.4750   -10.0634 C.3        1  LIG1   0.0100
     25 C15        49.6281    -6.2255    -9.0716 C.3        1  LIG1  -0.1400
     26 H6         49.8361    -6.2814    -8.0030 H          1  LIG1   0.1700
     27 C16        44.8431    -6.0298    -8.0744 C.3        1  LIG1   0.0000
     28 C17        43.7600    -4.9658    -8.3024 C.3        1  LIG1  -0.0600
     29 N5         43.5872    -5.3990   -11.9084 N.pl3      1  LIG1  -0.5300
     30 C18        40.1164    -4.1225   -12.3609 C.ar       1  LIG1  -0.1100
     31 C19        39.2058    -3.7243   -13.3126 C.ar       1  LIG1  -0.0600
     32 H7         36.7073    -2.6318   -15.9876 H          1  LIG1   0.4100
     33 H8         37.0568    -3.0845   -14.4079 H          1  LIG1   0.4000
     34 H9         41.3028    -3.4147   -15.9693 H          1  LIG1   0.1400
     35 H10        42.9291    -4.1163   -14.2679 H          1  LIG1   0.1500
     36 H11        45.3299    -7.3516   -10.3956 H          1  LIG1   0.1500
     37 H12        46.2444    -6.0058   -11.1234 H          1  LIG1   0.1300
     38 H13        47.4138    -6.3436    -7.6454 H          1  LIG1   0.1500
     39 H14        46.8029    -7.7087    -8.6107 H          1  LIG1   0.1500
     40 H15        49.1967    -5.2056   -11.8732 H          1  LIG1   0.1400
     41 H16        49.6205    -3.6179   -11.1615 H          1  LIG1   0.1500
     42 H17        50.5853    -7.2616   -10.7781 H          1  LIG1   0.1400
     43 H18        51.7251    -6.7341    -9.5016 H          1  LIG1   0.1500
     44 H19        44.4084    -7.0219    -8.1970 H          1  LIG1   0.1400
     45 H20        45.2410    -5.9316    -7.0644 H          1  LIG1   0.1500
     46 H21        44.1395    -3.9850    -8.0167 H          1  LIG1   0.1100
     47 H22        42.8754    -5.2067    -7.7128 H          1  LIG1   0.1400
     48 H23        43.9052    -5.7178   -12.7676 H          1  LIG1   0.4300
     49 H24        39.7899    -4.3217   -11.3508 H          1  LIG1   0.1300
     50 H25        38.1638    -3.6145   -13.0505 H          1  LIG1   0.1500
@<TRIPOS>BOND
     1    1    2 am
     2    1   32 1
     3    1   33 1
     4    2    3 2
     5    2    4 1
     6    4   31 ar
     7    4    5 ar
     8    5    6 ar
     9    5   34 1
    10    6    7 ar
    11    6   35 1
    12    7    8 1
    13    7   30 ar
    14    8   29 1
    15    8    9 2
    16    9   10 1
    17   10   28 1
    18   10   11 2
    19   11   12 1
    20   11   29 1
    21   12   13 1
    22   12   36 1
    23   12   37 1
    24   13   14 1
    25   13   15 1
    26   13   27 1
    27   15   16 1
    28   15   38 1
    29   15   39 1
    30   16   17 1
    31   16   25 1
    32   16   18 1
    33   18   19 1
    34   18   25 1
    35   18   20 1
    36   20   21 1
    37   20   40 1
    38   20   41 1
    39   21   22 1
    40   21   23 1
    41   21   24 1
    42   24   25 1
    43   24   42 1
    44   24   43 1
    45   25   26 1
    46   27   28 1
    47   27   44 1
    48   27   45 1
    49   28   46 1
    50   28   47 1
    51   29   48 1
    52   30   31 ar
    53   30   49 1
    54   31   50 1
##########                 Name:     ZINC000299758469
##########          Protonation:                 none
##########               SMILES:   O=C(NCC1=NN2CC[N@H+](C[C@H]3[C@@H]4C[NH2+]C[C@H]34)CC2=C1)C1CCC1
##########            Long Name:   NO_LONG_NAME
##########          FlexRecCode: 1
##########               Number:                  340
##########   Ligand Source File: /mnt/screening/DOCK-3.7.5/small_scale/EC/AARP/ECAARP.xaa.db2.gz
##########                 Rank:                    1
##########               Setnum:                   58
##########             Matchnum:                 4417
##########                Cloud:                    1
##########        Electrostatic:          -322.459137
##########                 Gist:             0.000000
##########        Van der Waals:             0.900417
##########  Ligand Polar Desolv:            49.856285
########## Ligand Apolar Desolv:            -2.351573
##########      Internal Energy:             0.000000
##########      Receptor Energy:             0.000000
########## Receptor Desolvation:             0.000000
########## Receptor Hydrophobic:             0.000000
##########         Total Energy:          -274.054016
##########        Ligand Charge:             2.000000
##########            Arbitrary:    +999.9990
##########        Ligand Energy:             0.000000

@<TRIPOS>MOLECULE
 ZINC000299758469      none
   53    57     2     0     0



@<TRIPOS>ATOM
      1 O1         40.6920    -3.8422   -16.2964 O.2        1  LIG1  -0.5200
      2 C1         40.2033    -3.8888   -15.1874 C.2        1  LIG1   0.5400
      3 N1         40.8058    -4.6013   -14.2149 N.am       1  LIG1  -0.7300
      4 C2         42.0511    -5.3195   -14.4974 C.3        1  LIG1   0.1900
      5 C3         42.8832    -5.3948   -13.2433 C.2        1  LIG1   0.0700
      6 N2         42.4449    -5.7101   -12.0483 N.2        1  LIG1  -0.2200
      7 N3         43.5228    -5.6642   -11.1668 N.pl3      1  LIG1  -0.3800
      8 C4         43.5384    -5.9287    -9.7245 C.3        1  LIG1   0.1100
      9 C5         44.8419    -5.3577    -9.1510 C.3        1  LIG1  -0.0200
     10 N4         45.9841    -5.8328    -9.9432 N.4        1  LIG1  -0.3900
     11 H1         45.9093    -6.8305   -10.0740 H          1  LIG1   0.4300
     12 C6         47.2323    -5.5263    -9.2320 C.3        1  LIG1   0.0200
     13 C7         48.3545    -6.4208    -9.7624 C.3        1  LIG1  -0.1500
     14 H2         48.5736    -6.3187   -10.8254 H          1  LIG1   0.1400
     15 C8         49.5288    -6.7097    -8.8251 C.3        1  LIG1  -0.1800
     16 H3         49.5686    -6.2262    -7.8491 H          1  LIG1   0.1600
     17 C9         50.8632    -7.1695    -9.4506 C.3        1  LIG1   0.0200
     18 N5         50.7368    -8.6457    -9.5593 N.4        1  LIG1  -0.5200
     19 H4         51.3714    -9.0038   -10.2572 H          1  LIG1   0.4500
     20 H5         50.9117    -9.0816    -8.6663 H          1  LIG1   0.4400
     21 C10        49.3280    -8.8614    -9.9785 C.3        1  LIG1   0.0100
     22 C11        48.4997    -7.8122    -9.1431 C.3        1  LIG1  -0.1400
     23 H6         47.7864    -8.1969    -8.4141 H          1  LIG1   0.1700
     24 C12        45.9954    -5.1668   -11.2568 C.3        1  LIG1   0.0800
     25 C13        44.6265    -5.3147   -11.8719 C.2        1  LIG1   0.0000
     26 C14        44.2595    -5.1459   -13.1551 C.2        1  LIG1  -0.1800
     27 C15        38.9256    -3.1451   -14.8951 C.3        1  LIG1  -0.1400
     28 C16        38.2237    -2.6081   -16.1536 C.3        1  LIG1  -0.1200
     29 C17        37.4861    -3.9559   -16.2214 C.3        1  LIG1  -0.1400
     30 C18        37.7077    -4.0642   -14.7034 C.3        1  LIG1  -0.1200
     31 H7         40.4149    -4.6388   -13.3280 H          1  LIG1   0.4000
     32 H8         41.8192    -6.3277   -14.8407 H          1  LIG1   0.1000
     33 H9         42.6076    -4.7912   -15.2716 H          1  LIG1   0.0900
     34 H10        42.6844    -5.4435    -9.2518 H          1  LIG1   0.1400
     35 H11        43.4974    -7.0033    -9.5466 H          1  LIG1   0.1200
     36 H12        44.8060    -4.2688    -9.1840 H          1  LIG1   0.1500
     37 H13        44.9568    -5.6843    -8.1175 H          1  LIG1   0.1600
     38 H14        47.4946    -4.4805    -9.3927 H          1  LIG1   0.1500
     39 H15        47.0969    -5.7071    -8.1657 H          1  LIG1   0.1500
     40 H16        50.9935    -6.7254   -10.4375 H          1  LIG1   0.1400
     41 H17        51.6981    -6.9062    -8.8011 H          1  LIG1   0.1500
     42 H18        49.2179    -8.6822   -11.0481 H          1  LIG1   0.1400
     43 H19        49.0069    -9.8722    -9.7266 H          1  LIG1   0.1500
     44 H20        46.2298    -4.1097   -11.1312 H          1  LIG1   0.1500
     45 H21        46.7403    -5.6352   -11.9002 H          1  LIG1   0.1500
     46 H22        44.9092    -4.8663   -13.9713 H          1  LIG1   0.1700
     47 H23        39.0399    -2.4014   -14.1064 H          1  LIG1   0.1000
     48 H24        37.5668    -1.7603   -15.9590 H          1  LIG1   0.0900
     49 H25        38.8996    -2.4377   -16.9915 H          1  LIG1   0.0700
     50 H26        36.4372    -3.8659   -16.5041 H          1  LIG1   0.0800
     51 H27        38.0166    -4.7155   -16.7954 H          1  LIG1   0.0800
     52 H28        37.9673    -5.0691   -14.3707 H          1  LIG1   0.0800
     53 H29        36.9100    -3.6143   -14.1126 H          1  LIG1   0.0900
@<TRIPOS>BOND
     1    1    2 2
     2    2    3 am
     3    2   27 1
     4    3    4 1
     5    3   31 1
     6    4    5 1
     7    4   32 1
     8    4   33 1
     9    5   26 1
    10    5    6 2
    11    6    7 1
    12    7   25 1
    13    7    8 1
    14    8    9 1
    15    8   34 1
    16    8   35 1
    17    9   10 1
    18    9   36 1
    19    9   37 1
    20   10   11 1
    21   10   12 1
    22   10   24 1
    23   12   13 1
    24   12   38 1
    25   12   39 1
    26   13   14 1
    27   13   22 1
    28   13   15 1
    29   15   16 1
    30   15   22 1
    31   15   17 1
    32   17   18 1
    33   17   40 1
    34   17   41 1
    35   18   19 1
    36   18   20 1
    37   18   21 1
    38   21   22 1
    39   21   42 1
    40   21   43 1
    41   22   23 1
    42   24   25 1
    43   24   44 1
    44   24   45 1
    45   25   26 2
    46   26   46 1
    47   27   30 1
    48   27   28 1
    49   27   47 1
    50   28   29 1
    51   28   48 1
    52   28   49 1
    53   29   30 1
    54   29   50 1
    55   29   51 1
    56   30   52 1
    57   30   53 1
##########                 Name:     ZINC000299772512
##########          Protonation:                 none
##########               SMILES:   O=C(NCC1=NN2CC[N@H+](C[C@H]3[C@@H]4C[NH2+]C[C@H]34)CC2=C1)C1CCCC1
##########            Long Name:   NO_LONG_NAME
##########          FlexRecCode: 1
##########               Number:                  369
##########   Ligand Source File: /mnt/screening/DOCK-3.7.5/small_scale/EC/AARP/ECAARP.xaa.db2.gz
##########                 Rank:                    1
##########               Setnum:                   57
##########             Matchnum:                 4417
##########                Cloud:                    1
##########        Electrostatic:          -321.968781
##########                 Gist:             0.000000
##########        Van der Waals:             0.421054
##########  Ligand Polar Desolv:            49.841911
########## Ligand Apolar Desolv:            -2.437593
##########      Internal Energy:             0.000000
##########      Receptor Energy:             0.000000
########## Receptor Desolvation:             0.000000
########## Receptor Hydrophobic:             0.000000
##########         Total Energy:          -274.143402
##########        Ligand Charge:             2.000000
##########            Arbitrary:    +999.9990
##########        Ligand Energy:             0.000000

@<TRIPOS>MOLECULE
 ZINC000299772512      none
   56    60     2     0     0



@<TRIPOS>ATOM
      1 O1         40.6920    -3.8422   -16.2964 O.2        1  LIG1  -0.5200
      2 C1         40.2033    -3.8888   -15.1874 C.2        1  LIG1   0.5200
      3 N1         40.8058    -4.6013   -14.2149 N.am       1  LIG1  -0.7300
      4 C2         42.0511    -5.3195   -14.4974 C.3        1  LIG1   0.1900
      5 C3         42.8832    -5.3948   -13.2433 C.2        1  LIG1   0.0700
      6 N2         42.4449    -5.7101   -12.0483 N.2        1  LIG1  -0.2200
      7 N3         43.5228    -5.6642   -11.1668 N.pl3      1  LIG1  -0.3800
      8 C4         43.5384    -5.9287    -9.7245 C.3        1  LIG1   0.1100
      9 C5         44.8419    -5.3577    -9.1510 C.3        1  LIG1  -0.0200
     10 N4         45.9841    -5.8328    -9.9432 N.4        1  LIG1  -0.3900
     11 H1         45.9093    -6.8305   -10.0740 H          1  LIG1   0.4300
     12 C6         47.2323    -5.5263    -9.2320 C.3        1  LIG1   0.0200
     13 C7         48.3545    -6.4208    -9.7624 C.3        1  LIG1  -0.1500
     14 H2         48.5736    -6.3187   -10.8254 H          1  LIG1   0.1400
     15 C8         49.5288    -6.7097    -8.8251 C.3        1  LIG1  -0.1800
     16 H3         49.5686    -6.2262    -7.8491 H          1  LIG1   0.1600
     17 C9         50.8632    -7.1695    -9.4506 C.3        1  LIG1   0.0200
     18 N5         50.7368    -8.6457    -9.5593 N.4        1  LIG1  -0.5200
     19 H4         51.3714    -9.0038   -10.2572 H          1  LIG1   0.4500
     20 H5         50.9117    -9.0816    -8.6663 H          1  LIG1   0.4400
     21 C10        49.3280    -8.8614    -9.9785 C.3        1  LIG1   0.0100
     22 C11        48.4997    -7.8122    -9.1431 C.3        1  LIG1  -0.1400
     23 H6         47.7864    -8.1969    -8.4141 H          1  LIG1   0.1700
     24 C12        45.9954    -5.1668   -11.2568 C.3        1  LIG1   0.0800
     25 C13        44.6265    -5.3147   -11.8719 C.2        1  LIG1   0.0000
     26 C14        44.2595    -5.1459   -13.1551 C.2        1  LIG1  -0.1800
     27 C15        38.9256    -3.1451   -14.8951 C.3        1  LIG1  -0.1100
     28 C16        38.3950    -2.4547   -16.1761 C.3        1  LIG1  -0.1100
     29 C17        36.8839    -2.2939   -15.8767 C.3        1  LIG1  -0.1200
     30 C18        36.5065    -3.5890   -15.1282 C.3        1  LIG1  -0.1300
     31 C19        37.8048    -4.1301   -14.5041 C.3        1  LIG1  -0.1100
     32 H7         40.4149    -4.6388   -13.3280 H          1  LIG1   0.4000
     33 H8         41.8192    -6.3277   -14.8407 H          1  LIG1   0.1000
     34 H9         42.6076    -4.7912   -15.2716 H          1  LIG1   0.0900
     35 H10        42.6844    -5.4435    -9.2518 H          1  LIG1   0.1400
     36 H11        43.4974    -7.0033    -9.5466 H          1  LIG1   0.1200
     37 H12        44.8060    -4.2688    -9.1840 H          1  LIG1   0.1500
     38 H13        44.9568    -5.6843    -8.1175 H          1  LIG1   0.1600
     39 H14        47.4946    -4.4805    -9.3927 H          1  LIG1   0.1400
     40 H15        47.0969    -5.7071    -8.1657 H          1  LIG1   0.1500
     41 H16        50.9935    -6.7254   -10.4375 H          1  LIG1   0.1400
     42 H17        51.6981    -6.9062    -8.8011 H          1  LIG1   0.1500
     43 H18        49.2179    -8.6822   -11.0481 H          1  LIG1   0.1400
     44 H19        49.0069    -9.8722    -9.7266 H          1  LIG1   0.1500
     45 H20        46.2298    -4.1097   -11.1312 H          1  LIG1   0.1500
     46 H21        46.7403    -5.6352   -11.9002 H          1  LIG1   0.1500
     47 H22        44.9092    -4.8663   -13.9713 H          1  LIG1   0.1700
     48 H23        39.0840    -2.4135   -14.1027 H          1  LIG1   0.1000
     49 H24        38.8671    -1.4820   -16.3146 H          1  LIG1   0.0700
     50 H25        38.5505    -3.0886   -17.0491 H          1  LIG1   0.0700
     51 H26        36.7108    -1.4233   -15.2439 H          1  LIG1   0.0700
     52 H27        36.3179    -2.2107   -16.8045 H          1  LIG1   0.0700
     53 H28        35.7794    -3.3699   -14.3463 H          1  LIG1   0.0700
     54 H29        36.0961    -4.3179   -15.8270 H          1  LIG1   0.0700
     55 H30        38.0242    -5.1217   -14.9000 H          1  LIG1   0.0900
     56 H31        37.7075    -4.1738   -13.4193 H          1  LIG1   0.0700
@<TRIPOS>BOND
     1    1    2 2
     2    2    3 am
     3    2   27 1
     4    3    4 1
     5    3   32 1
     6    4    5 1
     7    4   33 1
     8    4   34 1
     9    5   26 1
    10    5    6 2
    11    6    7 1
    12    7   25 1
    13    7    8 1
    14    8    9 1
    15    8   35 1
    16    8   36 1
    17    9   10 1
    18    9   37 1
    19    9   38 1
    20   10   11 1
    21   10   12 1
    22   10   24 1
    23   12   13 1
    24   12   39 1
    25   12   40 1
    26   13   14 1
    27   13   22 1
    28   13   15 1
    29   15   16 1
    30   15   22 1
    31   15   17 1
    32   17   18 1
    33   17   41 1
    34   17   42 1
    35   18   19 1
    36   18   20 1
    37   18   21 1
    38   21   22 1
    39   21   43 1
    40   21   44 1
    41   22   23 1
    42   24   25 1
    43   24   45 1
    44   24   46 1
    45   25   26 2
    46   26   47 1
    47   27   31 1
    48   27   28 1
    49   27   48 1
    50   28   29 1
    51   28   49 1
    52   28   50 1
    53   29   30 1
    54   29   51 1
    55   29   52 1
    56   30   31 1
    57   30   53 1
    58   30   54 1
    59   31   55 1
    60   31   56 1
##########                 Name:     ZINC000077323360
##########          Protonation:                 none
##########               SMILES:   O[C@]1(CN2CC[NH+](C/C=C/C3=CC=CC=C3)CC2)C[NH2+]CCOC1
##########            Long Name:   NO_LONG_NAME
##########          FlexRecCode: 1
##########               Number:                  881
##########   Ligand Source File: /mnt/screening/DOCK-3.7.5/small_scale/EC/AAMP/ECAAMP.xaa.db2.gz
##########                 Rank:                    1
##########               Setnum:                   52
##########             Matchnum:                 5738
##########                Cloud:                    1
##########        Electrostatic:          -287.794647
##########                 Gist:             0.000000
##########        Van der Waals:           -15.037642
##########  Ligand Polar Desolv:            29.155540
########## Ligand Apolar Desolv:            -2.462425
##########      Internal Energy:             0.000000
##########      Receptor Energy:             0.000000
########## Receptor Desolvation:             0.000000
########## Receptor Hydrophobic:             0.000000
##########         Total Energy:          -276.139160
##########        Ligand Charge:             2.000000
##########            Arbitrary:    +999.9990
##########        Ligand Energy:             0.000000

@<TRIPOS>MOLECULE
 ZINC000077323360      none
   55    57     2     0     0



@<TRIPOS>ATOM
      1 O1         48.2473    -5.1960    -8.5831 O.3        1  LIG1  -0.5400
      2 C1         47.7224    -5.4843    -9.8806 C.3        1  LIG1   0.0800
      3 C2         46.1979    -5.5905    -9.8046 C.3        1  LIG1   0.0300
      4 N1         45.6268    -5.4071   -11.1455 N.3        1  LIG1  -0.5300
      5 C3         44.2335    -4.9461   -11.0659 C.3        1  LIG1   0.0100
      6 C4         43.6958    -4.7107   -12.4791 C.3        1  LIG1  -0.0100
      7 N2         43.7730    -5.9603   -13.2471 N.4        1  LIG1  -0.3900
      8 H1         43.2293    -6.6733   -12.7844 H          1  LIG1   0.4200
      9 C5         43.2403    -5.7383   -14.5980 C.3        1  LIG1   0.0400
     10 C6         42.8598    -7.0611   -15.2117 C.2        1  LIG1  -0.2700
     11 C7         41.6067    -7.2834   -15.5828 C.2        1  LIG1   0.0000
     12 C8         41.2334    -8.5808   -16.1847 C.ar       1  LIG1  -0.1100
     13 C9         42.0441    -9.7005   -15.9947 C.ar       1  LIG1  -0.1000
     14 C10        41.6901   -10.9086   -16.5592 C.ar       1  LIG1  -0.1200
     15 C11        40.5343   -11.0113   -17.3125 C.ar       1  LIG1  -0.0900
     16 C12        39.7264    -9.9048   -17.5051 C.ar       1  LIG1  -0.1200
     17 C13        40.0658    -8.6925   -16.9404 C.ar       1  LIG1  -0.0900
     18 C14        45.1731    -6.3950   -13.3388 C.3        1  LIG1   0.0000
     19 C15        45.7230    -6.6445   -11.9327 C.3        1  LIG1   0.0300
     20 C16        48.2982    -6.7875   -10.3811 C.3        1  LIG1  -0.0400
     21 N3         49.6274    -7.0983    -9.8120 N.4        1  LIG1  -0.5000
     22 H2         49.5055    -7.4596    -8.8778 H          1  LIG1   0.4300
     23 H3         50.0677    -7.8063   -10.3801 H          1  LIG1   0.4400
     24 C17        50.5090    -5.9204    -9.7554 C.3        1  LIG1  -0.0500
     25 C18        50.3972    -5.0774   -11.0039 C.3        1  LIG1   0.0400
     26 O2         49.4384    -4.0432   -10.7362 O.3        1  LIG1  -0.3500
     27 C19        48.1152    -4.3527   -10.8620 C.3        1  LIG1   0.0800
     28 H4         48.0387    -5.8652    -7.9170 H          1  LIG1   0.3800
     29 H5         45.9208    -6.5733    -9.4230 H          1  LIG1   0.1100
     30 H6         45.8129    -4.8198    -9.1371 H          1  LIG1   0.0600
     31 H7         43.6278    -5.7031   -10.5679 H          1  LIG1   0.0600
     32 H8         44.1902    -4.0152   -10.5005 H          1  LIG1   0.1600
     33 H9         42.6580    -4.3823   -12.4229 H          1  LIG1   0.1400
     34 H10        44.2933    -3.9438   -12.9720 H          1  LIG1   0.1400
     35 H11        42.3604    -5.0976   -14.5407 H          1  LIG1   0.1300
     36 H12        44.0005    -5.2575   -15.2138 H          1  LIG1   0.1400
     37 H13        43.6078    -7.8279   -15.3488 H          1  LIG1   0.1400
     38 H14        40.8587    -6.5167   -15.4457 H          1  LIG1   0.1300
     39 H15        42.9470    -9.6214   -15.4074 H          1  LIG1   0.1200
     40 H16        42.3168   -11.7760   -16.4129 H          1  LIG1   0.1300
     41 H17        40.2617   -11.9591   -17.7527 H          1  LIG1   0.1300
     42 H18        38.8258    -9.9913   -18.0949 H          1  LIG1   0.1300
     43 H19        39.4341    -7.8295   -17.0911 H          1  LIG1   0.1300
     44 H20        45.2305    -7.3154   -13.9199 H          1  LIG1   0.1400
     45 H21        45.7630    -5.6194   -13.8273 H          1  LIG1   0.1400
     46 H22        46.7664    -6.9527   -11.9997 H          1  LIG1   0.1300
     47 H23        45.1419    -7.4295   -11.4489 H          1  LIG1   0.0600
     48 H24        47.6113    -7.5942   -10.1257 H          1  LIG1   0.1400
     49 H25        48.3858    -6.7369   -11.4664 H          1  LIG1   0.1400
     50 H26        50.2368    -5.3140    -8.8915 H          1  LIG1   0.1600
     51 H27        51.5407    -6.2539    -9.6429 H          1  LIG1   0.1400
     52 H28        51.3646    -4.6342   -11.2400 H          1  LIG1   0.1400
     53 H29        50.0567    -5.6921   -11.8372 H          1  LIG1   0.0800
     54 H30        47.9180    -4.6785   -11.8834 H          1  LIG1   0.0700
     55 H31        47.5172    -3.4670   -10.6468 H          1  LIG1   0.1300
@<TRIPOS>BOND
     1    1    2 1
     2    1   28 1
     3    2   27 1
     4    2    3 1
     5    2   20 1
     6    3    4 1
     7    3   29 1
     8    3   30 1
     9    4   19 1
    10    4    5 1
    11    5    6 1
    12    5   31 1
    13    5   32 1
    14    6    7 1
    15    6   33 1
    16    6   34 1
    17    7    8 1
    18    7    9 1
    19    7   18 1
    20    9   10 1
    21    9   35 1
    22    9   36 1
    23   10   11 2
    24   10   37 1
    25   11   12 1
    26   11   38 1
    27   12   17 ar
    28   12   13 ar
    29   13   14 ar
    30   13   39 1
    31   14   15 ar
    32   14   40 1
    33   15   16 ar
    34   15   41 1
    35   16   17 ar
    36   16   42 1
    37   17   43 1
    38   18   19 1
    39   18   44 1
    40   18   45 1
    41   19   46 1
    42   19   47 1
    43   20   21 1
    44   20   48 1
    45   20   49 1
    46   21   22 1
    47   21   23 1
    48   21   24 1
    49   24   25 1
    50   24   50 1
    51   24   51 1
    52   25   26 1
    53   25   52 1
    54   25   53 1
    55   26   27 1
    56   27   54 1
    57   27   55 1
##########                 Name:     ZINC000108458785
##########          Protonation:                 none
##########               SMILES:   CC[NH+]=C(NC[C@@H]1CCC[N@H+](C)C1)N[C@H]1CCCN(CCOC)C1
##########            Long Name:   NO_LONG_NAME
##########          FlexRecCode: 1
##########               Number:                   55
##########   Ligand Source File: /mnt/screening/DOCK-3.7.5/small_scale/EC/EARP/ECEARP.xaa.db2.gz
##########                 Rank:                    1
##########               Setnum:                  113
##########             Matchnum:                 3606
##########                Cloud:                    1
##########        Electrostatic:          -331.138245
##########                 Gist:             0.000000
##########        Van der Waals:            -6.627018
##########  Ligand Polar Desolv:            46.708241
########## Ligand Apolar Desolv:            -5.076277
##########      Internal Energy:             0.000000
##########      Receptor Energy:             0.000000
########## Receptor Desolvation:             0.000000
########## Receptor Hydrophobic:             0.000000
##########         Total Energy:          -296.133301
##########        Ligand Charge:             3.000000
##########            Arbitrary:    +999.9990
##########        Ligand Energy:             0.000000

@<TRIPOS>MOLECULE
 ZINC000108458785      none
   64    65     3     0     0



@<TRIPOS>ATOM
      1 C1         40.1044    -5.3374   -14.4748 C.3        1  LIG1  -0.1800
      2 C2         41.4504    -5.2812   -13.7493 C.3        1  LIG1   0.0800
      3 N1         42.4547    -6.0112   -14.5266 N.pl3      1  LIG1  -0.6400
      4 H1         42.3814    -6.0567   -15.4928 H          1  LIG1   0.4400
      5 C3         43.4468    -6.5999   -13.9201 C.cat      1  LIG1   0.7400
      6 N2         43.9311    -6.0889   -12.7391 N.pl3      1  LIG1  -0.7000
      7 C4         45.0463    -6.7506   -12.0573 C.3        1  LIG1   0.1000
      8 C5         45.8608    -5.7112   -11.2848 C.3        1  LIG1  -0.1200
      9 H2         45.1861    -4.9935   -10.8182 H          1  LIG1   0.1100
     10 C6         46.8001    -4.9789   -12.2475 C.3        1  LIG1  -0.1400
     11 C7         47.6654    -3.9968   -11.4526 C.3        1  LIG1  -0.1500
     12 C8         48.4275    -4.7599   -10.3671 C.3        1  LIG1  -0.0100
     13 N3         47.4742    -5.4160    -9.4642 N.4        1  LIG1  -0.3800
     14 H3         46.8533    -4.7241    -9.0719 H          1  LIG1   0.4300
     15 C9         48.2081    -6.0836    -8.3808 C.3        1  LIG1  -0.0500
     16 C10        46.6890    -6.4107   -10.2047 C.3        1  LIG1   0.0000
     17 N4         44.0092    -7.7319   -14.4610 N.pl3      1  LIG1  -0.7000
     18 C11        43.4932    -8.2766   -15.7193 C.3        1  LIG1   0.1200
     19 H4         43.5944    -7.5305   -16.5075 H          1  LIG1   0.1100
     20 C12        44.2871    -9.5304   -16.0973 C.3        1  LIG1  -0.1600
     21 C13        43.6901   -10.1359   -17.3710 C.3        1  LIG1  -0.1400
     22 C14        42.2075   -10.4359   -17.1402 C.3        1  LIG1  -0.0200
     23 N5         41.4991    -9.1937   -16.8086 N.4        1  LIG1  -0.3800
     24 H5         41.6360    -8.5218   -17.5487 H          1  LIG1   0.4300
     25 C15        40.0644    -9.4739   -16.6627 C.3        1  LIG1   0.0000
     26 C16        39.4169    -9.5525   -18.0468 C.3        1  LIG1   0.0200
     27 O1         39.5926    -8.3076   -18.7262 O.3        1  LIG1  -0.4000
     28 C17        39.0213    -8.2745   -20.0356 C.3        1  LIG1   0.0300
     29 C18        42.0176    -8.6444   -15.5500 C.3        1  LIG1  -0.0200
     30 H6         39.3570    -4.7941   -13.8964 H          1  LIG1   0.1100
     31 H7         40.2033    -4.8814   -15.4598 H          1  LIG1   0.0800
     32 H8         39.7939    -6.3763   -14.5846 H          1  LIG1   0.0800
     33 H9         41.7607    -4.2421   -13.6394 H          1  LIG1   0.1100
     34 H10        41.3514    -5.7371   -12.7642 H          1  LIG1   0.1000
     35 H11        43.5346    -5.2903   -12.3574 H          1  LIG1   0.4300
     36 H12        44.6573    -7.4961   -11.3637 H          1  LIG1   0.1000
     37 H13        45.6848    -7.2382   -12.7941 H          1  LIG1   0.1100
     38 H14        47.4401    -5.7021   -12.7529 H          1  LIG1   0.0900
     39 H15        46.2123    -4.4325   -12.9851 H          1  LIG1   0.0900
     40 H16        48.3751    -3.5120   -12.1230 H          1  LIG1   0.1200
     41 H17        47.0287    -3.2434   -10.9890 H          1  LIG1   0.0900
     42 H18        49.0641    -5.5129   -10.8319 H          1  LIG1   0.1300
     43 H19        49.0448    -4.0637    -9.7994 H          1  LIG1   0.1400
     44 H20        47.5010    -6.5711    -7.7097 H          1  LIG1   0.1300
     45 H21        48.8810    -6.8295    -8.8038 H          1  LIG1   0.1300
     46 H22        48.7868    -5.3456    -7.8254 H          1  LIG1   0.1300
     47 H23        46.0235    -6.9328    -9.5172 H          1  LIG1   0.1400
     48 H24        47.3620    -7.1287   -10.6732 H          1  LIG1   0.1400
     49 H25        44.7476    -8.1700   -14.0094 H          1  LIG1   0.4400
     50 H26        45.3287    -9.2627   -16.2745 H          1  LIG1   0.1000
     51 H27        44.2290   -10.2568   -15.2866 H          1  LIG1   0.1100
     52 H28        43.7946    -9.4286   -18.1938 H          1  LIG1   0.0900
     53 H29        44.2146   -11.0596   -17.6153 H          1  LIG1   0.1300
     54 H30        41.7793   -10.8672   -18.0450 H          1  LIG1   0.1500
     55 H31        42.1041   -11.1433   -16.3173 H          1  LIG1   0.1400
     56 H32        39.9305   -10.4234   -16.1445 H          1  LIG1   0.1500
     57 H33        39.5951    -8.6762   -16.0868 H          1  LIG1   0.1500
     58 H34        39.8863   -10.3501   -18.6227 H          1  LIG1   0.1100
     59 H35        38.3524    -9.7604   -17.9385 H          1  LIG1   0.0700
     60 H36        39.1972    -7.2968   -20.4841 H          1  LIG1   0.1000
     61 H37        39.4824    -9.0456   -20.6528 H          1  LIG1   0.0600
     62 H38        37.9487    -8.4560   -19.9687 H          1  LIG1   0.0500
     63 H39        41.9186    -9.3896   -14.7607 H          1  LIG1   0.1500
     64 H40        41.4492    -7.7540   -15.2812 H          1  LIG1   0.1500
@<TRIPOS>BOND
     1    1    2 1
     2    1   30 1
     3    1   31 1
     4    1   32 1
     5    2    3 1
     6    2   33 1
     7    2   34 1
     8    3    4 1
     9    3    5 1
    10    5    6 1
    11    5   17 1
    12    6    7 1
    13    6   35 1
    14    7    8 1
    15    7   36 1
    16    7   37 1
    17    8    9 1
    18    8   16 1
    19    8   10 1
    20   10   11 1
    21   10   38 1
    22   10   39 1
    23   11   12 1
    24   11   40 1
    25   11   41 1
    26   12   13 1
    27   12   42 1
    28   12   43 1
    29   13   14 1
    30   13   15 1
    31   13   16 1
    32   15   44 1
    33   15   45 1
    34   15   46 1
    35   16   47 1
    36   16   48 1
    37   17   18 1
    38   17   49 1
    39   18   19 1
    40   18   29 1
    41   18   20 1
    42   20   21 1
    43   20   50 1
    44   20   51 1
    45   21   22 1
    46   21   52 1
    47   21   53 1
    48   22   23 1
    49   22   54 1
    50   22   55 1
    51   23   24 1
    52   23   25 1
    53   23   29 1
    54   25   26 1
    55   25   56 1
    56   25   57 1
    57   26   27 1
    58   26   58 1
    59   26   59 1
    60   27   28 1
    61   28   60 1
    62   28   61 1
    63   28   62 1
    64   29   63 1
    65   29   64 1
##########                 Name:     ZINC000137997467
##########          Protonation:                 none
##########               SMILES:   CCOC1=CC=C(N2C(=O)C[C@@H](SC(=[NH2+])NC(N)=[NH2+])C2=O)C=C1
##########            Long Name:   NO_LONG_NAME
##########          FlexRecCode: 1
##########               Number:                   64
##########   Ligand Source File: /mnt/screening/DOCK-3.7.5/small_scale/EC/EARP/ECEARP.xaa.db2.gz
##########                 Rank:                    1
##########               Setnum:                   40
##########             Matchnum:                 2267
##########                Cloud:                    1
##########        Electrostatic:          -321.607727
##########                 Gist:             0.000000
##########        Van der Waals:           -18.714787
##########  Ligand Polar Desolv:            40.062016
########## Ligand Apolar Desolv:            -1.748741
##########      Internal Energy:             0.000000
##########      Receptor Energy:             0.000000
########## Receptor Desolvation:             0.000000
########## Receptor Hydrophobic:             0.000000
##########         Total Energy:          -302.009247
##########        Ligand Charge:             2.000000
##########            Arbitrary:    +999.9990
##########        Ligand Energy:             0.000000

@<TRIPOS>MOLECULE
 ZINC000137997467      none
   42    43     2     0     0



@<TRIPOS>ATOM
      1 C1         35.6686    -2.9290   -14.3282 C.3        1  LIG1  -0.1600
      2 C2         37.1197    -3.0756   -14.7906 C.3        1  LIG1   0.0500
      3 O1         37.9923    -2.5190   -13.8053 O.3        1  LIG1  -0.3000
      4 C3         39.2312    -3.0684   -13.6971 C.ar       1  LIG1   0.1700
      5 C4         39.8815    -3.0760   -12.4714 C.ar       1  LIG1  -0.2000
      6 C5         41.1399    -3.6335   -12.3609 C.ar       1  LIG1  -0.0500
      7 C6         41.7540    -4.1872   -13.4760 C.ar       1  LIG1   0.0300
      8 N1         43.0328    -4.7543   -13.3642 N.am       1  LIG1  -0.4900
      9 C7         43.9115    -4.7646   -14.3741 C.2        1  LIG1   0.5200
     10 O2         43.7192    -4.2998   -15.4771 O.2        1  LIG1  -0.4000
     11 C8         45.1831    -5.4480   -13.9205 C.3        1  LIG1  -0.1200
     12 C9         44.8836    -5.8348   -12.4578 C.3        1  LIG1  -0.2200
     13 H1         44.9274    -6.9165   -12.3305 H          1  LIG1   0.1800
     14 S1         46.0406    -5.0155   -11.3326 S.3        1  LIG1   0.3100
     15 C10        45.8771    -6.0524    -9.9174 C.cat      1  LIG1   0.4400
     16 N2         44.9807    -5.7814    -9.0111 N.pl3      1  LIG1  -0.6900
     17 H2         44.4036    -5.0089    -9.1156 H          1  LIG1   0.4400
     18 H3         44.8908    -6.3523    -8.2320 H          1  LIG1   0.4600
     19 N3         46.6991    -7.1523    -9.7685 N.pl3      1  LIG1  -0.6300
     20 C11        47.9673    -7.1376   -10.2942 C.cat      1  LIG1   0.7500
     21 N4         48.4046    -6.0634   -10.9474 N.pl3      1  LIG1  -0.7900
     22 N5         48.7594    -8.1977   -10.1509 N.pl3      1  LIG1  -0.7300
     23 H4         48.4406    -8.9806    -9.6751 H          1  LIG1   0.4600
     24 H5         49.6554    -8.1875   -10.5223 H          1  LIG1   0.4600
     25 C12        43.4764    -5.3244   -12.2371 C.2        1  LIG1   0.5300
     26 O3         42.8477    -5.4224   -11.2052 O.2        1  LIG1  -0.4700
     27 C13        41.1024    -4.1800   -14.7018 C.ar       1  LIG1  -0.0500
     28 C14        39.8418    -3.6269   -14.8102 C.ar       1  LIG1  -0.1400
     29 H6         35.0031    -3.3532   -15.0801 H          1  LIG1   0.0700
     30 H7         35.5331    -3.4563   -13.3839 H          1  LIG1   0.0700
     31 H8         35.4357    -1.8730   -14.1913 H          1  LIG1   0.0900
     32 H9         37.3525    -4.1315   -14.9275 H          1  LIG1   0.0700
     33 H10        37.2551    -2.5482   -15.7349 H          1  LIG1   0.0700
     34 H11        39.4037    -2.6453   -11.6039 H          1  LIG1   0.1400
     35 H12        41.6466    -3.6385   -11.4071 H          1  LIG1   0.1300
     36 H13        45.3758    -6.3372   -14.5208 H          1  LIG1   0.1700
     37 H14        46.0271    -4.7600   -13.9703 H          1  LIG1   0.1500
     38 H15        46.3805    -7.9350    -9.2925 H          1  LIG1   0.4800
     39 H16        47.8273    -5.2909   -11.0519 H          1  LIG1   0.4400
     40 H17        49.3006    -6.0531   -11.3188 H          1  LIG1   0.4700
     41 H18        41.5799    -4.6103   -15.5697 H          1  LIG1   0.1400
     42 H19        39.3348    -3.6216   -15.7637 H          1  LIG1   0.1500
@<TRIPOS>BOND
     1    1    2 1
     2    1   29 1
     3    1   30 1
     4    1   31 1
     5    2    3 1
     6    2   32 1
     7    2   33 1
     8    3    4 1
     9    4   28 ar
    10    4    5 ar
    11    5    6 ar
    12    5   34 1
    13    6    7 ar
    14    6   35 1
    15    7    8 1
    16    7   27 ar
    17    8   25 am
    18    8    9 am
    19    9   10 2
    20    9   11 1
    21   11   12 1
    22   11   36 1
    23   11   37 1
    24   12   13 1
    25   12   14 1
    26   12   25 1
    27   14   15 1
    28   15   16 2
    29   15   19 1
    30   16   17 1
    31   16   18 1
    32   19   20 1
    33   19   38 1
    34   20   21 2
    35   20   22 1
    36   21   39 1
    37   21   40 1
    38   22   23 1
    39   22   24 1
    40   25   26 2
    41   27   28 ar
    42   27   41 1
    43   28   42 1
##########                 Name:     ZINC000095523573
##########          Protonation:                 none
##########               SMILES:   CC1=CC(N2CCC([N@H+]3C[C@H]4C[NH2+]C[C@H]4C3)CC2)=NC(N(C)C)=[NH+]1
##########            Long Name:   NO_LONG_NAME
##########          FlexRecCode: 1
##########               Number:                 1050
##########   Ligand Source File: /mnt/screening/DOCK-3.7.5/small_scale/EC/AARP/ECAARP.xaa.db2.gz
##########                 Rank:                    1
##########               Setnum:                    4
##########             Matchnum:                 1868
##########                Cloud:                    1
##########        Electrostatic:          -345.127502
##########                 Gist:             0.000000
##########        Van der Waals:             2.764398
##########  Ligand Polar Desolv:            55.232845
########## Ligand Apolar Desolv:            -3.361128
##########      Internal Energy:             0.000000
##########      Receptor Energy:             0.000000
########## Receptor Desolvation:             0.000000
########## Receptor Hydrophobic:             0.000000
##########         Total Energy:          -290.491394
##########        Ligand Charge:             3.000000
##########            Arbitrary:    +999.9990
##########        Ligand Energy:             0.000000

@<TRIPOS>MOLECULE
 ZINC000095523573      none
   57    60     3     0     0



@<TRIPOS>ATOM
      1 C1         40.9990    -2.4288   -17.5236 C.3        1  LIG1  -0.1500
      2 C2         40.8920    -3.4203   -16.3937 C.ar       1  LIG1   0.2600
      3 C3         41.8058    -3.4000   -15.3586 C.ar       1  LIG1  -0.2600
      4 C4         41.6700    -4.3367   -14.3315 C.ar       1  LIG1   0.4600
      5 N1         42.5634    -4.3533   -13.2728 N.pl3      1  LIG1  -0.4600
      6 C5         43.9449    -4.4869   -13.7519 C.3        1  LIG1   0.0600
      7 C6         44.9105    -4.3554   -12.5720 C.3        1  LIG1  -0.1400
      8 C7         44.6005    -5.4447   -11.5414 C.3        1  LIG1   0.0200
      9 N2         45.4858    -5.2876   -10.3798 N.4        1  LIG1  -0.3900
     10 H1         45.1423    -4.5610    -9.7698 H          1  LIG1   0.4400
     11 C8         45.6073    -6.5709    -9.6420 C.3        1  LIG1   0.0000
     12 C9         46.9215    -6.4413    -8.8441 C.3        1  LIG1  -0.1300
     13 H2         46.7506    -6.1513    -7.8073 H          1  LIG1   0.1600
     14 C10        47.7079    -7.7634    -8.9622 C.3        1  LIG1   0.0000
     15 N3         49.1097    -7.3466    -9.2210 N.4        1  LIG1  -0.5200
     16 H3         49.5560    -7.0577    -8.3634 H          1  LIG1   0.4500
     17 H4         49.6274    -8.0976    -9.6525 H          1  LIG1   0.4500
     18 C11        48.9822    -6.1973   -10.1530 C.3        1  LIG1   0.0000
     19 C12        47.7592    -5.3926    -9.6243 C.3        1  LIG1  -0.1300
     20 H5         48.0560    -4.5403    -9.0132 H          1  LIG1   0.1600
     21 C13        46.8715    -4.9844   -10.8198 C.3        1  LIG1   0.0000
     22 C14        43.1418    -5.3132   -11.0947 C.3        1  LIG1  -0.1400
     23 C15        42.2276    -5.4168   -12.3175 C.3        1  LIG1   0.0600
     24 N4         40.6711    -5.2117   -14.3845 N.ar       1  LIG1  -0.5600
     25 C16        39.8153    -5.1979   -15.3955 C.ar       1  LIG1   0.6400
     26 N5         38.7855    -6.1223   -15.4206 N.pl3      1  LIG1  -0.5600
     27 C17        38.6524    -7.0998   -14.3376 C.3        1  LIG1   0.0800
     28 C18        37.8288    -6.1232   -16.5300 C.3        1  LIG1   0.0600
     29 N6         39.9168    -4.3174   -16.3802 N.ar       1  LIG1  -0.5600
     30 H6         39.2731    -4.3350   -17.1056 H          1  LIG1   0.4400
     31 H7         41.8584    -1.7795   -17.3571 H          1  LIG1   0.1300
     32 H8         41.1245    -2.9632   -18.4653 H          1  LIG1   0.1200
     33 H9         40.0914    -1.8267   -17.5658 H          1  LIG1   0.1100
     34 H10        42.6075    -2.6765   -15.3438 H          1  LIG1   0.1900
     35 H11        44.0743    -5.4626   -14.2202 H          1  LIG1   0.0800
     36 H12        44.1538    -3.7039   -14.4810 H          1  LIG1   0.1200
     37 H13        45.9351    -4.4702   -12.9256 H          1  LIG1   0.1100
     38 H14        44.7914    -3.3746   -12.1118 H          1  LIG1   0.1100
     39 H15        44.7581    -6.4257   -11.9897 H          1  LIG1   0.1400
     40 H16        44.7632    -6.7011    -8.9649 H          1  LIG1   0.1600
     41 H17        45.6676    -7.4060   -10.3401 H          1  LIG1   0.1400
     42 H18        47.6449    -8.3272    -8.0316 H          1  LIG1   0.1600
     43 H19        47.3289    -8.3577    -9.7936 H          1  LIG1   0.1400
     44 H20        49.8801    -5.5803   -10.1201 H          1  LIG1   0.1600
     45 H21        48.7997    -6.5501   -11.1681 H          1  LIG1   0.1400
     46 H22        47.1179    -5.5823   -11.6974 H          1  LIG1   0.1400
     47 H23        46.9911    -3.9230   -11.0368 H          1  LIG1   0.1600
     48 H24        42.9027    -6.1123   -10.3929 H          1  LIG1   0.1100
     49 H25        42.9949    -4.3475   -10.6112 H          1  LIG1   0.1100
     50 H26        41.1890    -5.3093   -12.0045 H          1  LIG1   0.1200
     51 H27        42.3649    -6.3883   -12.7925 H          1  LIG1   0.0800
     52 H28        37.7904    -7.7390   -14.5291 H          1  LIG1   0.0800
     53 H29        39.5536    -7.7109   -14.2869 H          1  LIG1   0.1000
     54 H30        38.5140    -6.5771   -13.3912 H          1  LIG1   0.0900
     55 H31        37.0962    -6.9157   -16.3773 H          1  LIG1   0.0700
     56 H32        37.3194    -5.1605   -16.5714 H          1  LIG1   0.1100
     57 H33        38.3590    -6.2943   -17.4669 H          1  LIG1   0.1100
@<TRIPOS>BOND
     1    1    2 1
     2    1   31 1
     3    1   32 1
     4    1   33 1
     5    2   29 ar
     6    2    3 ar
     7    3    4 ar
     8    3   34 1
     9    4    5 1
    10    4   24 ar
    11    5   23 1
    12    5    6 1
    13    6    7 1
    14    6   35 1
    15    6   36 1
    16    7    8 1
    17    7   37 1
    18    7   38 1
    19    8    9 1
    20    8   22 1
    21    8   39 1
    22    9   10 1
    23    9   21 1
    24    9   11 1
    25   11   12 1
    26   11   40 1
    27   11   41 1
    28   12   13 1
    29   12   19 1
    30   12   14 1
    31   14   15 1
    32   14   42 1
    33   14   43 1
    34   15   16 1
    35   15   17 1
    36   15   18 1
    37   18   19 1
    38   18   44 1
    39   18   45 1
    40   19   20 1
    41   19   21 1
    42   21   46 1
    43   21   47 1
    44   22   23 1
    45   22   48 1
    46   22   49 1
    47   23   50 1
    48   23   51 1
    49   24   25 ar
    50   25   26 1
    51   25   29 ar
    52   26   27 1
    53   26   28 1
    54   27   52 1
    55   27   53 1
    56   27   54 1
    57   28   55 1
    58   28   56 1
    59   28   57 1
    60   29   30 1
